File C:\Users\david\Desktop\Analisis Avanzado\Python\SapsVarios\TAREA5_2.$2k was saved on m/d/yy at h:mm:ss
 
TABLE:  "ACTIVE DEGREES OF FREEDOM"
   UX=Yes   UY=Yes   UZ=Yes   RX=Yes   RY=Yes   RZ=Yes
 
TABLE:  "ANALYSIS OPTIONS"
   Solver=Advanced   SolverProc=Auto   Force32Bit=No   StiffCase=None   GeomMod=None   HingeOpt="In Elements"
 
TABLE:  "AUTO WAVE 3 - WAVE CHARACTERISTICS - GENERAL"
   WaveChar=Default   WaveType="From Theory"   KinFactor=1   SWaterDepth=45   WaveHeight=18   WavePeriod=12   WaveTheory=Linear
 
TABLE:  "CABLE OUTPUT STATION ASSIGNMENTS"
   Cable=69   StationType=MinNumSta   MinNumSta=3   AddAtElmInt=Yes   AddAtPtLoad=Yes
   Cable=70   StationType=MinNumSta   MinNumSta=3   AddAtElmInt=Yes   AddAtPtLoad=Yes
   Cable=71   StationType=MinNumSta   MinNumSta=3   AddAtElmInt=Yes   AddAtPtLoad=Yes
   Cable=72   StationType=MinNumSta   MinNumSta=3   AddAtElmInt=Yes   AddAtPtLoad=Yes
   Cable=73   StationType=MinNumSta   MinNumSta=3   AddAtElmInt=Yes   AddAtPtLoad=Yes
   Cable=74   StationType=MinNumSta   MinNumSta=3   AddAtElmInt=Yes   AddAtPtLoad=Yes
   Cable=75   StationType=MinNumSta   MinNumSta=3   AddAtElmInt=Yes   AddAtPtLoad=Yes
   Cable=76   StationType=MinNumSta   MinNumSta=3   AddAtElmInt=Yes   AddAtPtLoad=Yes
   Cable=77   StationType=MinNumSta   MinNumSta=3   AddAtElmInt=Yes   AddAtPtLoad=Yes
   Cable=78   StationType=MinNumSta   MinNumSta=3   AddAtElmInt=Yes   AddAtPtLoad=Yes
   Cable=79   StationType=MinNumSta   MinNumSta=3   AddAtElmInt=Yes   AddAtPtLoad=Yes
   Cable=80   StationType=MinNumSta   MinNumSta=3   AddAtElmInt=Yes   AddAtPtLoad=Yes
   Cable=81   StationType=MinNumSta   MinNumSta=3   AddAtElmInt=Yes   AddAtPtLoad=Yes
   Cable=82   StationType=MinNumSta   MinNumSta=3   AddAtElmInt=Yes   AddAtPtLoad=Yes
   Cable=83   StationType=MinNumSta   MinNumSta=3   AddAtElmInt=Yes   AddAtPtLoad=Yes
   Cable=84   StationType=MinNumSta   MinNumSta=3   AddAtElmInt=Yes   AddAtPtLoad=Yes
   Cable=85   StationType=MinNumSta   MinNumSta=3   AddAtElmInt=Yes   AddAtPtLoad=Yes
   Cable=86   StationType=MinNumSta   MinNumSta=3   AddAtElmInt=Yes   AddAtPtLoad=Yes
 
TABLE:  "CABLE SECTION ASSIGNMENTS"
   Cable=69   CableSect=CAB1   MatProp=Default
   Cable=70   CableSect=CAB1   MatProp=Default
   Cable=71   CableSect=CAB1   MatProp=Default
   Cable=72   CableSect=CAB1   MatProp=Default
   Cable=73   CableSect=CAB1   MatProp=Default
   Cable=74   CableSect=CAB1   MatProp=Default
   Cable=75   CableSect=CAB1   MatProp=Default
   Cable=76   CableSect=CAB1   MatProp=Default
   Cable=77   CableSect=CAB1   MatProp=Default
   Cable=78   CableSect=CAB1   MatProp=Default
   Cable=79   CableSect=CAB1   MatProp=Default
   Cable=80   CableSect=CAB1   MatProp=Default
   Cable=81   CableSect=CAB1   MatProp=Default
   Cable=82   CableSect=CAB1   MatProp=Default
   Cable=83   CableSect=CAB1   MatProp=Default
   Cable=84   CableSect=CAB1   MatProp=Default
   Cable=85   CableSect=CAB1   MatProp=Default
   Cable=86   CableSect=CAB1   MatProp=Default
 
TABLE:  "CABLE SECTION DEFINITIONS"
   CableSect=CAB1   Material=A992Fy50   Specify=Area   Diameter=0.0593188402266101   Area=0.0027636   Color=Magenta   AMod=1   A2Mod=1   A3Mod=1   JMod=1   I2Mod=1   I3Mod=1   MMod=1   WMod=1   Notes="Added 20/04/2020 10:48:51 AM"
 
TABLE:  "CABLE SHAPE DATA"
   Cable=69   CableType="Undeformed Length"   NumSegs=1   TensionI=46.0462788675645   TensionJ=47.5526971173196   TensionHorz=38.0693498718763   SagMax=0.0827377228052833   SagLow=0   UnDefLength=11.9476739820037   UnDefRelLen=1   AddedWt=0 _
        ProjLoad=0   UseDefGeom=No   UseFrames=No
   Cable=70   CableType="Undeformed Length"   NumSegs=1   TensionI=46.0462788672482   TensionJ=47.5526971170033   TensionHorz=38.0693498716187   SagMax=0.082737722805778   SagLow=0   UnDefLength=11.9476739820036   UnDefRelLen=1   AddedWt=0 _
        ProjLoad=0   UseDefGeom=No   UseFrames=No
   Cable=71   CableType="Undeformed Length"   NumSegs=1   TensionI=46.0462788674867   TensionJ=47.5526971172418   TensionHorz=38.0693498718129   SagMax=0.0827377228054027   SagLow=0   UnDefLength=11.9476739820037   UnDefRelLen=1   AddedWt=0 _
        ProjLoad=0   UseDefGeom=No   UseFrames=No
   Cable=72   CableType="Undeformed Length"   NumSegs=1   TensionI=46.046278867552   TensionJ=47.5526971173071   TensionHorz=38.0693498718663   SagMax=0.0827377228052962   SagLow=0   UnDefLength=11.9476739820036   UnDefRelLen=1   AddedWt=0 _
        ProjLoad=0   UseDefGeom=No   UseFrames=No
   Cable=73   CableType="Undeformed Length"   NumSegs=1   TensionI=46.0462788672287   TensionJ=47.5526971169837   TensionHorz=38.069349871603   SagMax=0.0827377228058615   SagLow=0   UnDefLength=11.9476739820036   UnDefRelLen=1   AddedWt=0 _
        ProjLoad=0   UseDefGeom=No   UseFrames=No
   Cable=74   CableType="Undeformed Length"   NumSegs=1   TensionI=46.0462788675278   TensionJ=47.5526971172829   TensionHorz=38.0693498718462   SagMax=0.0827377228053153   SagLow=0   UnDefLength=11.9476739820037   UnDefRelLen=1   AddedWt=0 _
        ProjLoad=0   UseDefGeom=No   UseFrames=No
   Cable=75   CableType="Undeformed Length"   NumSegs=1   TensionI=46.0462788673039   TensionJ=47.552697117059   TensionHorz=38.0693498716636   SagMax=0.0827377228056866   SagLow=0   UnDefLength=11.9476739820038   UnDefRelLen=1   AddedWt=0 _
        ProjLoad=0   UseDefGeom=No   UseFrames=No
   Cable=76   CableType="Undeformed Length"   NumSegs=1   TensionI=46.0462788677245   TensionJ=47.5526971174797   TensionHorz=38.0693498720064   SagMax=0.0827377228050307   SagLow=0   UnDefLength=11.9476739820038   UnDefRelLen=1   AddedWt=0 _
        ProjLoad=0   UseDefGeom=No   UseFrames=No
   Cable=77   CableType="Undeformed Length"   NumSegs=1   TensionI=46.0462788673976   TensionJ=47.5526971171527   TensionHorz=38.0693498717399   SagMax=0.0827377228055386   SagLow=0   UnDefLength=11.9476739820038   UnDefRelLen=1   AddedWt=0 _
        ProjLoad=0   UseDefGeom=No   UseFrames=No
   Cable=78   CableType="Undeformed Length"   NumSegs=1   TensionI=46.0462788677245   TensionJ=47.5526971174797   TensionHorz=38.0693498720064   SagMax=0.0827377228050307   SagLow=0   UnDefLength=11.9476739820038   UnDefRelLen=1   AddedWt=0 _
        ProjLoad=0   UseDefGeom=No   UseFrames=No
   Cable=79   CableType="Undeformed Length"   NumSegs=1   TensionI=46.0462788675053   TensionJ=47.5526971172606   TensionHorz=38.0693498718277   SagMax=0.0827377228053791   SagLow=0   UnDefLength=11.9476739820038   UnDefRelLen=1   AddedWt=0 _
        ProjLoad=0   UseDefGeom=No   UseFrames=No
   Cable=80   CableType="Undeformed Length"   NumSegs=1   TensionI=46.0462788669001   TensionJ=47.5526971166553   TensionHorz=38.069349871335   SagMax=0.0827377228064063   SagLow=0   UnDefLength=11.9476739820038   UnDefRelLen=1   AddedWt=0 _
        ProjLoad=0   UseDefGeom=No   UseFrames=No
   Cable=81   CableType="Undeformed Length"   NumSegs=1   TensionI=46.0462788674889   TensionJ=47.552697117244   TensionHorz=38.0693498718144   SagMax=0.0827377228054133   SagLow=0   UnDefLength=11.9476739820038   UnDefRelLen=1   AddedWt=0 _
        ProjLoad=0   UseDefGeom=No   UseFrames=No
   Cable=82   CableType="Undeformed Length"   NumSegs=1   TensionI=46.0462788669001   TensionJ=47.5526971166553   TensionHorz=38.069349871335   SagMax=0.0827377228064063   SagLow=0   UnDefLength=11.9476739820038   UnDefRelLen=1   AddedWt=0 _
        ProjLoad=0   UseDefGeom=No   UseFrames=No
   Cable=83   CableType="Undeformed Length"   NumSegs=1   TensionI=46.046278867534   TensionJ=47.5526971172892   TensionHorz=38.0693498718509   SagMax=0.082737722805283   SagLow=0   UnDefLength=11.9476739820038   UnDefRelLen=1   AddedWt=0 _
        ProjLoad=0   UseDefGeom=No   UseFrames=No
   Cable=84   CableType="Undeformed Length"   NumSegs=1   TensionI=46.0462788671163   TensionJ=47.5526971168714   TensionHorz=38.0693498715108   SagMax=0.0827377228060093   SagLow=0   UnDefLength=11.9476739820037   UnDefRelLen=1   AddedWt=0 _
        ProjLoad=0   UseDefGeom=No   UseFrames=No
   Cable=85   CableType="Undeformed Length"   NumSegs=1   TensionI=46.0462788669868   TensionJ=47.5526971167419   TensionHorz=38.0693498714057   SagMax=0.0827377228062888   SagLow=0   UnDefLength=11.9476739820038   UnDefRelLen=1   AddedWt=0 _
        ProjLoad=0   UseDefGeom=No   UseFrames=No
   Cable=86   CableType="Undeformed Length"   NumSegs=1   TensionI=46.0462788671334   TensionJ=47.552697116888   TensionHorz=38.0693498715295   SagMax=0.0827377228060046   SagLow=0   UnDefLength=11.9476739820023   UnDefRelLen=1   AddedWt=0 _
        ProjLoad=0   UseDefGeom=No   UseFrames=No
 
TABLE:  "CASE - MODAL 1 - GENERAL"
   Case=MODAL   ModeType=Eigen   MaxNumModes=12   MinNumModes=1   EigenShift=0   EigenCutoff=0   EigenTol=1E-09   AutoShift=Yes
 
TABLE:  "CASE - STATIC 1 - LOAD ASSIGNMENTS"
   Case=DEAD   LoadType="Load pattern"   LoadName=DEAD   LoadSF=1
   Case=ACASE1   LoadType="Load pattern"   LoadName=DEAD   LoadSF=1
 
TABLE:  "CASE - STATIC 2 - NONLINEAR LOAD APPLICATION"
   Case=DEAD   LoadApp="Full Load"   MonitorDOF=U3   MonitorJt=58
 
TABLE:  "CASE - STATIC 4 - NONLINEAR PARAMETERS"
   Case=DEAD   GeoNonLin="Large Displ"   ResultsSave="Multiple States"   MaxTotal=200   MaxNull=50   UseEvStep=Yes   EvLumpTol=0.01   MaxEvPerStp=24   UseIter=Yes   MaxIterCS=10   MaxIterNR=40   ItConvTol=0.0001   UseLineSrch=Yes _
        LSPerIter=20   LSTol=0.1   LSStepFact=1.618   TFMaxIter=10   TFTol=0.01   TFAccelFact=1   TFNoStop=No
 
TABLE:  "CONNECTIVITY - CABLE"
   Cable=69   JointI=69   JointJ=71   GUID=d320f7f6-a321-4ca5-82aa-8b0b09703bf8
   Cable=70   JointI=71   JointJ=72   GUID=b3ad5d2e-7b55-405d-bda5-e95027a1b8b8
   Cable=71   JointI=72   JointJ=73   GUID=a06de3b4-13c7-4d06-b26f-ee84e4cf172b
   Cable=72   JointI=73   JointJ=74   GUID=a6ca2d24-be6a-4cf7-93fb-9fec543fc3f7
   Cable=73   JointI=74   JointJ=75   GUID=f548e9b3-4799-4c39-bb8d-6e19d469ccbf
   Cable=74   JointI=75   JointJ=76   GUID=3bdbf200-4430-4cdc-927b-7d0c5a8663a8
   Cable=75   JointI=76   JointJ=77   GUID=46bb1eab-6fa7-4870-9a17-0a80ca4656a8
   Cable=76   JointI=77   JointJ=78   GUID=8ed723da-0fc7-41a8-8b70-3636d5ee5c06
   Cable=77   JointI=78   JointJ=79   GUID=4ac1cef6-8f8c-4c64-9d62-b6a03b625472
   Cable=78   JointI=79   JointJ=80   GUID=41c3ff72-81dd-4b21-ab39-f543973f941d
   Cable=79   JointI=80   JointJ=81   GUID=dedc08d7-6009-4b33-893c-8298a15d7ad4
   Cable=80   JointI=81   JointJ=82   GUID=2f6dd20c-9a24-4319-a348-f368705b3a80
   Cable=81   JointI=82   JointJ=83   GUID=3fc6443f-3ec8-4b6b-bc1f-ec5f4d73b2bf
   Cable=82   JointI=83   JointJ=84   GUID=f32e3519-27fb-45bd-a67e-f12ab680335e
   Cable=83   JointI=84   JointJ=85   GUID=02371deb-0b0c-4905-bafd-4a2452100a4f
   Cable=84   JointI=85   JointJ=86   GUID=f69101c3-a07d-4795-a884-78b28bab997f
   Cable=85   JointI=86   JointJ=87   GUID=fb93572c-2c31-4a34-87fc-2a5623364010
   Cable=86   JointI=87   JointJ=70   GUID=776c5e33-0fb5-48a2-8567-fdafd50189b9
 
TABLE:  "CONNECTIVITY - FRAME"
   Frame=58   JointI=57   JointJ=59   IsCurved=No   GUID=f620d654-21d5-4649-801e-007b38c8fe45
   Frame=59   JointI=59   JointJ=60   IsCurved=No   GUID=96a2cb2c-3099-45a9-bd57-8bb5effe6124
   Frame=60   JointI=60   JointJ=61   IsCurved=No   GUID=14dbb502-8451-4a8b-813e-983a131b10cb
   Frame=61   JointI=61   JointJ=62   IsCurved=No   GUID=ae7bea52-ac1e-4f27-9f25-0bb2ff9a02d5
   Frame=62   JointI=62   JointJ=63   IsCurved=No   GUID=21b73916-41a4-4864-a450-17c694f69f16
   Frame=63   JointI=63   JointJ=64   IsCurved=No   GUID=9fa010ba-fe07-4029-a3a3-4140644c4d8a
   Frame=64   JointI=64   JointJ=65   IsCurved=No   GUID=8b1c4bcf-63b4-4d91-be9b-7d478db15987
   Frame=65   JointI=65   JointJ=66   IsCurved=No   GUID=5546f560-2c90-4d29-bad4-f0ce61da8b65
   Frame=66   JointI=66   JointJ=58   IsCurved=No   GUID=b1d2f2e6-0cc1-4361-8251-4a094dcfd85f
 
TABLE:  "COORDINATE SYSTEMS"
   Name=GLOBAL   Type=Cartesian   X=0   Y=0   Z=0   AboutZ=0   AboutY=0   AboutX=0
 
TABLE:  "DATABASE DOCUMENTATION"
 
TABLE:  "DATABASE FORMAT TYPES"
   UnitsCurr=Yes   OverrideE=No
 
TABLE:  "FRAME AUTO MESH ASSIGNMENTS"
   Frame=58   AutoMesh=Yes   AtJoints=Yes   AtFrames=No   NumSegments=0   MaxLength=0   MaxDegrees=0
   Frame=59   AutoMesh=Yes   AtJoints=Yes   AtFrames=No   NumSegments=0   MaxLength=0   MaxDegrees=0
   Frame=60   AutoMesh=Yes   AtJoints=Yes   AtFrames=No   NumSegments=0   MaxLength=0   MaxDegrees=0
   Frame=61   AutoMesh=Yes   AtJoints=Yes   AtFrames=No   NumSegments=0   MaxLength=0   MaxDegrees=0
   Frame=62   AutoMesh=Yes   AtJoints=Yes   AtFrames=No   NumSegments=0   MaxLength=0   MaxDegrees=0
   Frame=63   AutoMesh=Yes   AtJoints=Yes   AtFrames=No   NumSegments=0   MaxLength=0   MaxDegrees=0
   Frame=64   AutoMesh=Yes   AtJoints=Yes   AtFrames=No   NumSegments=0   MaxLength=0   MaxDegrees=0
   Frame=65   AutoMesh=Yes   AtJoints=Yes   AtFrames=No   NumSegments=0   MaxLength=0   MaxDegrees=0
   Frame=66   AutoMesh=Yes   AtJoints=Yes   AtFrames=No   NumSegments=0   MaxLength=0   MaxDegrees=0
 
TABLE:  "FRAME DESIGN PROCEDURES"
   Frame=58   DesignProc="From Material"
   Frame=59   DesignProc="From Material"
   Frame=60   DesignProc="From Material"
   Frame=61   DesignProc="From Material"
   Frame=62   DesignProc="From Material"
   Frame=63   DesignProc="From Material"
   Frame=64   DesignProc="From Material"
   Frame=65   DesignProc="From Material"
   Frame=66   DesignProc="From Material"
 
TABLE:  "FRAME LOAD TRANSFER OPTIONS"
   Frame=58   Transfer=Yes
   Frame=59   Transfer=Yes
   Frame=60   Transfer=Yes
   Frame=61   Transfer=Yes
   Frame=62   Transfer=Yes
   Frame=63   Transfer=Yes
   Frame=64   Transfer=Yes
   Frame=65   Transfer=Yes
   Frame=66   Transfer=Yes
 
TABLE:  "FRAME OUTPUT STATION ASSIGNMENTS"
   Frame=58   StationType=MinNumSta   MinNumSta=3   AddAtElmInt=Yes   AddAtPtLoad=Yes
   Frame=59   StationType=MinNumSta   MinNumSta=3   AddAtElmInt=Yes   AddAtPtLoad=Yes
   Frame=60   StationType=MinNumSta   MinNumSta=3   AddAtElmInt=Yes   AddAtPtLoad=Yes
   Frame=61   StationType=MinNumSta   MinNumSta=3   AddAtElmInt=Yes   AddAtPtLoad=Yes
   Frame=62   StationType=MinNumSta   MinNumSta=3   AddAtElmInt=Yes   AddAtPtLoad=Yes
   Frame=63   StationType=MinNumSta   MinNumSta=3   AddAtElmInt=Yes   AddAtPtLoad=Yes
   Frame=64   StationType=MinNumSta   MinNumSta=3   AddAtElmInt=Yes   AddAtPtLoad=Yes
   Frame=65   StationType=MinNumSta   MinNumSta=3   AddAtElmInt=Yes   AddAtPtLoad=Yes
   Frame=66   StationType=MinNumSta   MinNumSta=3   AddAtElmInt=Yes   AddAtPtLoad=Yes
 
TABLE:  "FRAME RELEASE ASSIGNMENTS 1 - GENERAL"
   Frame=58   PI=No   V2I=No   V3I=No   TI=No   M2I=No   M3I=Yes   PJ=No   V2J=No   V3J=No   TJ=No   M2J=No   M3J=Yes
   Frame=59   PI=No   V2I=No   V3I=No   TI=No   M2I=No   M3I=Yes   PJ=No   V2J=No   V3J=No   TJ=No   M2J=No   M3J=Yes
   Frame=60   PI=No   V2I=No   V3I=No   TI=No   M2I=No   M3I=Yes   PJ=No   V2J=No   V3J=No   TJ=No   M2J=No   M3J=Yes
   Frame=61   PI=No   V2I=No   V3I=No   TI=No   M2I=No   M3I=Yes   PJ=No   V2J=No   V3J=No   TJ=No   M2J=No   M3J=Yes
   Frame=62   PI=No   V2I=No   V3I=No   TI=No   M2I=No   M3I=Yes   PJ=No   V2J=No   V3J=No   TJ=No   M2J=No   M3J=Yes
   Frame=63   PI=No   V2I=No   V3I=No   TI=No   M2I=No   M3I=Yes   PJ=No   V2J=No   V3J=No   TJ=No   M2J=No   M3J=Yes
   Frame=64   PI=No   V2I=No   V3I=No   TI=No   M2I=No   M3I=Yes   PJ=No   V2J=No   V3J=No   TJ=No   M2J=No   M3J=Yes
   Frame=65   PI=No   V2I=No   V3I=No   TI=No   M2I=No   M3I=Yes   PJ=No   V2J=No   V3J=No   TJ=No   M2J=No   M3J=Yes
   Frame=66   PI=No   V2I=No   V3I=No   TI=No   M2I=No   M3I=Yes   PJ=No   V2J=No   V3J=No   TJ=No   M2J=No   M3J=Yes
 
TABLE:  "FRAME SECTION ASSIGNMENTS"
   Frame=58   AutoSelect=N.A.   AnalSect=FSEC2   MatProp=Default
   Frame=59   AutoSelect=N.A.   AnalSect=FSEC2   MatProp=Default
   Frame=60   AutoSelect=N.A.   AnalSect=FSEC2   MatProp=Default
   Frame=61   AutoSelect=N.A.   AnalSect=FSEC2   MatProp=Default
   Frame=62   AutoSelect=N.A.   AnalSect=FSEC2   MatProp=Default
   Frame=63   AutoSelect=N.A.   AnalSect=FSEC2   MatProp=Default
   Frame=64   AutoSelect=N.A.   AnalSect=FSEC2   MatProp=Default
   Frame=65   AutoSelect=N.A.   AnalSect=FSEC2   MatProp=Default
   Frame=66   AutoSelect=N.A.   AnalSect=FSEC2   MatProp=Default
 
TABLE:  "FRAME SECTION PROPERTIES 01 - GENERAL"
   SectionName=FSEC1   Material=A992Fy50   Shape="I/Wide Flange"   t3=0.3048   t2=0.127   tf=0.009652   tw=0.00635   t2b=0.127   tfb=0.009652   Area=0.0042645076   TorsConst=9.65117678053953E-08   I33=6.5724174702235E-05 _
        I22=3.30125717301008E-06   I23=0   AS2=0.00193548   AS3=0.00204300666666667   S33=0.00043126098885981   S22=5.19883019371667E-05   Z33=0.0004911874950424   Z22=8.0716532115E-05   R33=0.124144683132414   R22=0.0278230817990979 _
        Color=Gray8Dark   FromFile=No   AMod=1   A2Mod=1   A3Mod=1   JMod=1   I2Mod=1   I3Mod=1   MMod=1   WMod=1   Notes="Added 20/04/2020 10:50:19 AM"
   SectionName=FSEC2   Material=A992Fy50   Shape=General   t3=0.4572   t2=0.254   Area=0.0027636   TorsConst=1   I33=1   I22=1   I23=0   AS2=1   AS3=1   S33=1   S22=1   Z33=1   Z22=1   R33=1   R22=1   EccV2=0   Color=Green   FromFile=No _
        AMod=1   A2Mod=1   A3Mod=1   JMod=1   I2Mod=1   I3Mod=1   MMod=1   WMod=1   Notes="Added 20/04/2020 11:09:59 AM"
   SectionName=FSEC3   Material=4000Psi   Shape=Rectangular   t3=0.5   t2=0.3   Area=0.15   TorsConst=0.0028173708   I33=0.003125   I22=0.001125   I23=0   AS2=0.125   AS3=0.125   S33=0.0125   S22=0.0075   Z33=0.01875   Z22=0.01125 _
        R33=0.144337567297406   R22=0.0866025403784439   Color=Magenta   FromFile=No   AMod=1   A2Mod=1   A3Mod=1   JMod=1   I2Mod=1   I3Mod=1   MMod=1   WMod=1   Notes="Added 20/04/2020 11:59:06 AM"
 
TABLE:  "FRAME SECTION PROPERTIES 02 - CONCRETE COLUMN"
   SectionName=FSEC3   RebarMatL=A615Gr60   RebarMatC=A615Gr60   ReinfConfig=Rectangular   LatReinf=Ties   Cover=0.04   NumBars3Dir=3   NumBars2Dir=3   BarSizeL=#9   BarSizeC=#4   SpacingC=0.15   NumCBars2=3   NumCBars3=3   ReinfType=Design
 
TABLE:  "FRAME SECTION PROPERTIES 13 - TIME DEPENDENT"
   SectionName=FSEC1   TypeSize=Auto   AutoSFSize=1
   SectionName=FSEC2   TypeSize=None
   SectionName=FSEC3   TypeSize=Auto   AutoSFSize=1
 
TABLE:  "FUNCTION - PLOT FUNCTIONS"
   PlotFunc="Input Energy"   Type=Energy   Component=Input   Mode=All
 
TABLE:  "FUNCTION - POWER SPECTRAL DENSITY - USER"
   Name=UNIFPSD   Frequency=0   Value=1
   Name=UNIFPSD   Frequency=1   Value=1
 
TABLE:  "FUNCTION - RESPONSE SPECTRUM - USER"
   Name=UNIFRS   Period=0   Accel=1   FuncDamp=0.05
   Name=UNIFRS   Period=1   Accel=1
 
TABLE:  "FUNCTION - STEADY STATE - USER"
   Name=UNIFSS   Frequency=0   Value=1
   Name=UNIFSS   Frequency=1   Value=1
 
TABLE:  "FUNCTION - TIME HISTORY - USER"
   Name=RAMPTH   Time=0   Value=0
   Name=RAMPTH   Time=1   Value=1
   Name=RAMPTH   Time=4   Value=1
   Name=UNIFTH   Time=0   Value=1
   Name=UNIFTH   Time=1   Value=1
 
TABLE:  "GRID LINES"
   CoordSys=GLOBAL   AxisDir=X   GridID=A   XRYZCoord=0   LineType=Primary   LineColor=Gray8Dark   Visible=Yes   BubbleLoc=End   AllVisible=Yes   BubbleSize=25.0625
   CoordSys=GLOBAL   AxisDir=X   GridID=B   XRYZCoord=175   LineType=Primary   LineColor=Gray8Dark   Visible=Yes   BubbleLoc=End
   CoordSys=GLOBAL   AxisDir=Y   GridID=1   XRYZCoord=0   LineType=Primary   LineColor=Gray8Dark   Visible=Yes   BubbleLoc=Start
   CoordSys=GLOBAL   AxisDir=Z   GridID=Z1   XRYZCoord=0   LineType=Primary   LineColor=Gray8Dark   Visible=Yes   BubbleLoc=End
   CoordSys=GLOBAL   AxisDir=Z   GridID=Z2   XRYZCoord=125   LineType=Primary   LineColor=Gray8Dark   Visible=Yes   BubbleLoc=End
 
TABLE:  "GROUPS 1 - DEFINITIONS"
   GroupName=ALL   Selection=Yes   SectionCut=Yes   Steel=Yes   Concrete=Yes   Aluminum=Yes   ColdFormed=Yes   Stage=Yes   Bridge=Yes   AutoSeismic=No   AutoWind=No   SelDesSteel=No   SelDesAlum=No   SelDesCold=No   MassWeight=Yes   Color=Red
 
TABLE:  "JOINT COORDINATES"
   Joint=57   CoordSys=GLOBAL   CoordType=Cartesian   XorR=200   Y=0   Z=0   SpecialJt=No   GUID=0cce126b-671c-4c7a-80be-42297a55d329
   Joint=58   CoordSys=GLOBAL   CoordType=Cartesian   XorR=375   Y=0   Z=125   SpecialJt=No   GUID=648bd7ed-09cd-4dbb-91fa-df16adca79bb
   Joint=59   CoordSys=GLOBAL   CoordType=Cartesian   XorR=219.444444444444   Y=0   Z=13.8888888888889   SpecialJt=No   GUID=d377ea81-487f-4d83-8b91-added92f784e
   Joint=60   CoordSys=GLOBAL   CoordType=Cartesian   XorR=238.888888888889   Y=0   Z=27.7777777777778   SpecialJt=No   GUID=c16be65f-4de1-449d-abf9-33c99ff46d7b
   Joint=61   CoordSys=GLOBAL   CoordType=Cartesian   XorR=258.333333333333   Y=0   Z=41.6666666666667   SpecialJt=No   GUID=edb3ccb1-3163-4b91-b65b-e6fd24fe4ec3
   Joint=62   CoordSys=GLOBAL   CoordType=Cartesian   XorR=277.777777777778   Y=0   Z=55.5555555555556   SpecialJt=No   GUID=4622b7cb-820d-4556-8fc6-485a0ee4ebe7
   Joint=63   CoordSys=GLOBAL   CoordType=Cartesian   XorR=297.222222222222   Y=0   Z=69.4444444444444   SpecialJt=No   GUID=4ab410af-57e2-48b8-b2a9-a09f91bf2c1d
   Joint=64   CoordSys=GLOBAL   CoordType=Cartesian   XorR=316.666666666667   Y=0   Z=83.3333333333333   SpecialJt=No   GUID=f85fb293-fe0d-4a5a-9669-8d84e81884ae
   Joint=65   CoordSys=GLOBAL   CoordType=Cartesian   XorR=336.111111111111   Y=0   Z=97.2222222222222   SpecialJt=No   GUID=93a1f5df-d21d-48e5-93f7-c1d46818b0cc
   Joint=66   CoordSys=GLOBAL   CoordType=Cartesian   XorR=355.555555555556   Y=0   Z=111.111111111111   SpecialJt=No   GUID=f3992e49-1543-4d5e-a9ef-5bd44bdf4b68
   Joint=69   CoordSys=GLOBAL   CoordType=Cartesian   XorR=0   Y=0   Z=0   SpecialJt=No   GUID=24523e1c-08b6-4027-b589-3a8ca5a5f4db
   Joint=70   CoordSys=GLOBAL   CoordType=Cartesian   XorR=175   Y=0   Z=125   SpecialJt=No   GUID=e0b59bb6-58a4-457a-bf4c-40241cb9ef6a
   Joint=71   CoordSys=GLOBAL   CoordType=Cartesian   XorR=9.72222222222222   Y=0   Z=6.94444444444446   SpecialJt=No   GUID=8066e64b-7046-4f23-8686-5424509ace78
   Joint=72   CoordSys=GLOBAL   CoordType=Cartesian   XorR=19.4444444444444   Y=0   Z=13.8888888888889   SpecialJt=No   GUID=f26fc698-6e41-44ba-9b7c-81af76f9e3fd
   Joint=73   CoordSys=GLOBAL   CoordType=Cartesian   XorR=29.1666666666667   Y=0   Z=20.8333333333334   SpecialJt=No   GUID=d9ba8b38-0538-410c-889e-d6f2437c9b68
   Joint=74   CoordSys=GLOBAL   CoordType=Cartesian   XorR=38.8888888888889   Y=0   Z=27.7777777777778   SpecialJt=No   GUID=1458225a-ad2d-40d3-b029-70fa6cb0dbd8
   Joint=75   CoordSys=GLOBAL   CoordType=Cartesian   XorR=48.6111111111111   Y=0   Z=34.7222222222222   SpecialJt=No   GUID=8187e640-d2ed-42b9-b1e4-76d694b12045
   Joint=76   CoordSys=GLOBAL   CoordType=Cartesian   XorR=58.3333333333333   Y=0   Z=41.6666666666667   SpecialJt=No   GUID=da735082-34e2-4664-a819-8f428bfc57da
   Joint=77   CoordSys=GLOBAL   CoordType=Cartesian   XorR=68.0555555555556   Y=0   Z=48.6111111111114   SpecialJt=No   GUID=7e46b5d1-36ae-4ffc-ba48-997df22f1e81
   Joint=78   CoordSys=GLOBAL   CoordType=Cartesian   XorR=77.7777777777778   Y=0   Z=55.555555555556   SpecialJt=No   GUID=685d3471-ac40-4c9b-b923-8678cbbe758a
   Joint=79   CoordSys=GLOBAL   CoordType=Cartesian   XorR=87.5   Y=0   Z=62.5000000000007   SpecialJt=No   GUID=a0b01e9a-1419-4e96-998b-aff6430788be
   Joint=80   CoordSys=GLOBAL   CoordType=Cartesian   XorR=97.2222222222222   Y=0   Z=69.4444444444453   SpecialJt=No   GUID=15d1e0f8-2f82-4212-b498-f6fb76318cc4
   Joint=81   CoordSys=GLOBAL   CoordType=Cartesian   XorR=106.944444444444   Y=0   Z=76.38888888889   SpecialJt=No   GUID=eddbff93-64af-4b9b-9467-df7cff5ef0af
   Joint=82   CoordSys=GLOBAL   CoordType=Cartesian   XorR=116.666666666667   Y=0   Z=83.3333333333347   SpecialJt=No   GUID=1cdcd61b-1e0e-4988-b6b7-519e6f1483ae
   Joint=83   CoordSys=GLOBAL   CoordType=Cartesian   XorR=126.388888888889   Y=0   Z=90.2777777777793   SpecialJt=No   GUID=bf1ac67c-9fd0-480a-8998-f5a5090c1c6f
   Joint=84   CoordSys=GLOBAL   CoordType=Cartesian   XorR=136.111111111111   Y=0   Z=97.222222222224   SpecialJt=No   GUID=afd65b0a-bb2d-41ce-b3e1-08bd52d854f9
   Joint=85   CoordSys=GLOBAL   CoordType=Cartesian   XorR=145.833333333333   Y=0   Z=104.166666666669   SpecialJt=No   GUID=cff4bf00-2e70-4cc2-a1b0-78aa8d0ef21f
   Joint=86   CoordSys=GLOBAL   CoordType=Cartesian   XorR=155.555555555556   Y=0   Z=111.111111111113   SpecialJt=No   GUID=0894eb9f-d4a1-4531-956d-d4448a60ed33
   Joint=87   CoordSys=GLOBAL   CoordType=Cartesian   XorR=165.277777777778   Y=0   Z=118.055555555558   SpecialJt=No   GUID=43753326-2f8d-4cdb-be56-ee9acb200a06
 
TABLE:  "JOINT PATTERN DEFINITIONS"
   Pattern=Default
 
TABLE:  "JOINT RESTRAINT ASSIGNMENTS"
   Joint=57   U1=Yes   U2=Yes   U3=Yes   R1=Yes   R2=Yes   R3=Yes
   Joint=58   U1=Yes   U2=Yes   U3=Yes   R1=Yes   R2=Yes   R3=Yes
   Joint=69   U1=Yes   U2=Yes   U3=Yes   R1=Yes   R2=Yes   R3=Yes
   Joint=70   U1=Yes   U2=Yes   U3=Yes   R1=Yes   R2=Yes   R3=Yes
 
TABLE:  "LOAD CASE DEFINITIONS"
   Case=DEAD   Type=NonStatic   InitialCond=Zero   DesTypeOpt="Prog Det"   DesignType=Dead   DesActOpt="Prog Det"   DesignAct=Non-Composite   AutoType=None   RunCase=Yes   GUID=1c77f9ee-a17e-4483-860a-e1b062400022
   Case=MODAL   Type=LinModal   InitialCond=Zero   DesTypeOpt="Prog Det"   DesignType=Other   DesActOpt="Prog Det"   DesignAct=Other   AutoType=None   RunCase=Yes   GUID=80178a03-6189-4420-92e4-c4cabfc45c25
   Case=ACASE1   Type=LinStatic   InitialCond=Zero   DesTypeOpt="Prog Det"   DesignType=Dead   DesActOpt="Prog Det"   DesignAct=Non-Composite   AutoType=None   RunCase=Yes   GUID=485addec-d101-4863-b8bc-60971fc4d87b
 
TABLE:  "LOAD PATTERN DEFINITIONS"
   LoadPat=DEAD   DesignType=Dead   SelfWtMult=1   GUID=e62346c6-fab9-4521-a4fc-eda8d0e58fed
 
TABLE:  "MASS SOURCE"
   MassSource=MSSSRC1   Elements=Yes   Masses=Yes   Loads=No   IsDefault=Yes
 
TABLE:  "MATERIAL PROPERTIES 01 - GENERAL"
   Material=4000Psi   Type=Concrete   Grade="f'c 4000 psi"   SymType=Isotropic   TempDepend=No   Color=Red   Notes="Customary f'c 4000 psi 20/04/2020 10:48:14 AM"
   Material=A615Gr60   Type=Rebar   Grade="Grade 60"   SymType=Uniaxial   TempDepend=No   Color=Red   Notes="ASTM A615 Grade 60 20/04/2020 11:59:06 AM"
   Material=A992Fy50   Type=Steel   Grade="Grade 50"   SymType=Isotropic   TempDepend=No   Color=Cyan   Notes="ASTM A992 Grade 50 20/04/2020 10:48:14 AM"
 
TABLE:  "MATERIAL PROPERTIES 02 - BASIC MECHANICAL PROPERTIES"
   Material=4000Psi   UnitWeight=23.5631216161854   UnitMass=2.40276960558926   E1=24855578.0600518   G12=10356490.8583549   U12=0.2   A1=9.89999952793124E-06
   Material=A615Gr60   UnitWeight=76.9728639422648   UnitMass=7.84904737995992   E1=199947978.795958   A1=1.16999994421006E-05
   Material=A992Fy50   UnitWeight=78.5   UnitMass=8.004772108946   E1=199947978.795958   G12=76903068.767676   U12=0.3   A1=1.16999994421006E-05
 
TABLE:  "MATERIAL PROPERTIES 03A - STEEL DATA"
   Material=A992Fy50   Fy=344737.894475789   Fu=448159.262818526   EffFy=379211.683923368   EffFu=492975.189100378   SSCurveOpt=Simple   SSHysType=Kinematic   SHard=0.015   SMax=0.11   SRup=0.17   FinalSlope=-0.1
 
TABLE:  "MATERIAL PROPERTIES 03B - CONCRETE DATA"
   Material=4000Psi   Fc=27579.0315580631   eFc=27579.0315580631   LtWtConc=No   SSCurveOpt=Mander   SSHysType=Takeda   SFc=0.00221914   SCap=0.005   FinalSlope=-0.1   FAngle=0   DAngle=0
 
TABLE:  "MATERIAL PROPERTIES 03E - REBAR DATA"
   Material=A615Gr60   Fy=413685.473370947   Fu=620528.21005642   EffFy=455054.020708041   EffFu=682581.031062062   SSCurveOpt=Simple   SSHysType=Kinematic   SHard=0.01   SCap=0.09   FinalSlope=-0.1   UseCTDef=No
 
TABLE:  "MATERIAL PROPERTIES 06 - DAMPING PARAMETERS"
   Material=4000Psi   ModalRatio=0   VisMass=0   VisStiff=0   HysMass=0   HysStiff=0
   Material=A615Gr60   ModalRatio=0   VisMass=0   VisStiff=0   HysMass=0   HysStiff=0
   Material=A992Fy50   ModalRatio=0   VisMass=0   VisStiff=0   HysMass=0   HysStiff=0
 
TABLE:  "OPTIONS - COLORS - DISPLAY"
   DeviceType=Screen   Points=Blue   LinesFrame=Blue   LinesFrmDL=Blue   LinesCable=Green   LinesTendon=Green   SpringLinks=Green   Restraints=Green   Releases=Green   Axes=Cyan   Text=Black   ShadowLines=Gray8Dark   GuideLines=Gray8Dark _
        Highlight=Red   Selection=10504778   AreaFillBot=Red   AreaFillTop=16744703   AreaFillSd=Red   AreaEdge=DarkRed   SolidF1=Red   SolidF2=Blue   SolidF3=Green   SolidF4=Yellow   SolidF5=White   SolidF6=Cyan   SolidEdge=DarkRed _
        Floor=Gray4   Background=White   BGLowLeft=White   BGLowRight=White   BGUpRight=White   Darkness=0.5
   DeviceType=Printer   Points=Gray8Dark   LinesFrame=Black   LinesFrmDL=Gray4   LinesCable=Black   LinesTendon=Black   SpringLinks=Gray8Dark   Restraints=Gray8Dark   Releases=Gray4   Axes=Black   Text=Black   ShadowLines=Gray4 _
        GuideLines=Gray4   Highlight=Black   Selection=Black   AreaFillBot=Gray4   AreaFillTop=Gray8Dark   AreaFillSd=Gray4   AreaEdge=Black   SolidF1=Gray1Light   SolidF2=Gray2   SolidF3=Gray3   SolidF4=Gray4   SolidF5=Gray5 _
        SolidF6=Gray6   SolidEdge=Black   Floor=Gray4   Background=White   BGLowLeft=White   BGLowRight=White   BGUpRight=White   Darkness=0.5
   DeviceType="Color Printer"   Points=Blue   LinesFrame=Blue   LinesFrmDL=Blue   LinesCable=Green   LinesTendon=Green   SpringLinks=Green   Restraints=Green   Releases=Green   Axes=Cyan   Text=Black   ShadowLines=Gray8Dark _
        GuideLines=Gray8Dark   Highlight=Red   Selection=10504778   AreaFillBot=Red   AreaFillTop=16744703   AreaFillSd=Red   AreaEdge=DarkRed   SolidF1=Red   SolidF2=Blue   SolidF3=Green   SolidF4=Yellow   SolidF5=White   SolidF6=Cyan _
        SolidEdge=DarkRed   Floor=Gray4   Background=White   BGLowLeft=White   BGLowRight=White   BGUpRight=White   Darkness=0.5
 
TABLE:  "OPTIONS - COLORS - OUTPUT"
   DeviceType=Screen   Contour1=13107400   Contour2=6553828   Contour3=Red   Contour4=16639   Contour5=Orange   Contour6=43775   Contour7=54527   Contour8=Yellow   Contour9=65408   Contour10=Green   Contour11=8453888   Contour12=Cyan _
        Contour13=16755200   Contour14=16733440   Contour15=Blue   Transpare=0.5   Ratio1=Cyan   Ratio2=Green   Ratio3=Yellow   Ratio4=Orange   Ratio5=Red   RatioNotD=Gray4   RatioNotC=Red   RatioVal1=0.5   RatioVal2=0.7   RatioVal3=0.9 _
        RatioVal4=1   DFillPos=Blue   DFillNeg=Red   DFillRPos=Green   DFillRNeg=Green
   DeviceType=Printer   Contour1=Black   Contour2=3158064   Contour3=4210752   Contour4=5263440   Contour5=6316128   Contour6=7368816   Contour7=Gray8Dark   Contour8=Gray7   Contour9=Gray6   Contour10=Gray5   Contour11=Gray4 _
        Contour12=Gray3   Contour13=Gray2   Contour14=Gray1Light   Contour15=White   Transpare=0   Ratio1=Gray2   Ratio2=Gray4   Ratio3=Gray8Dark   Ratio4=4210752   Ratio5=Black   RatioNotD=Gray4   RatioNotC=Black   RatioVal1=0.5 _
        RatioVal2=0.7   RatioVal3=0.9   RatioVal4=1   DFillPos=Gray8Dark   DFillNeg=Gray8Dark   DFillRPos=4210752   DFillRNeg=4210752
   DeviceType="Color Printer"   Contour1=13107400   Contour2=6553828   Contour3=Red   Contour4=16639   Contour5=Orange   Contour6=43775   Contour7=54527   Contour8=Yellow   Contour9=65408   Contour10=Green   Contour11=8453888 _
        Contour12=Cyan   Contour13=16755200   Contour14=16733440   Contour15=Blue   Transpare=0   Ratio1=Cyan   Ratio2=Green   Ratio3=Yellow   Ratio4=Orange   Ratio5=Red   RatioNotD=Gray4   RatioNotC=Red   RatioVal1=0.5   RatioVal2=0.7 _
        RatioVal3=0.9   RatioVal4=1   DFillPos=Blue   DFillNeg=Red   DFillRPos=Green   DFillRNeg=Green
 
TABLE:  "OVERWRITES - STEEL DESIGN - AISC 360-10"
   Frame=58   DesignSect="Program Determined"   FrameType="Program Determined"   Fy=0   RLLF=0   AreaRatio=0   XLMajor=0   XLMinor=0   XLLTB=0   K1Major=0   K1Minor=0   K2Major=0   K2Minor=0   KLTB=0   CmMajor=0   CmMinor=0   Cb=0 _
        B1Major=0   B1Minor=0   B2Major=0   B2Minor=0   HSSReduceT="Program Determined"   HSSWelding="Program Determined"   Omega0=0   Ry=0   Pnc=0   Pnt=0   Mn3=0   Mn2=0   Vn2=0   Vn3=0   CheckDefl="Program Determined" _
        DeflType="Program Determined"   DLRat=0   SDLAndLLRat=0   LLRat=0   TotalRat=0   NetRat=0   DLAbs=0   SDLAndLLAbs=0   LLAbs=0   TotalAbs=0   NetAbs=0   SpecCamber=0   DCLimit=0
   Frame=58   DesignSect="Program Determined"   FrameType="Program Determined"   Fy=0   RLLF=0   AreaRatio=0   XLMajor=0   XLMinor=0   XLLTB=0   K1Major=0   K1Minor=0   K2Major=0   K2Minor=0   KLTB=0   CmMajor=0   CmMinor=0   Cb=0 _
        B1Major=0   B1Minor=0   B2Major=0   B2Minor=0   HSSReduceT="Program Determined"   HSSWelding="Program Determined"   Omega0=0   Ry=0   Pnc=0   Pnt=0   Mn3=0   Mn2=0   Vn2=0   Vn3=0   CheckDefl="Program Determined" _
        DeflType="Program Determined"   DLRat=0   SDLAndLLRat=0   LLRat=0   TotalRat=0   NetRat=0   DLAbs=0   SDLAndLLAbs=0   LLAbs=0   TotalAbs=0   NetAbs=0   SpecCamber=0   DCLimit=0
   Frame=59   DesignSect="Program Determined"   FrameType="Program Determined"   Fy=0   RLLF=0   AreaRatio=0   XLMajor=0   XLMinor=0   XLLTB=0   K1Major=0   K1Minor=0   K2Major=0   K2Minor=0   KLTB=0   CmMajor=0   CmMinor=0   Cb=0 _
        B1Major=0   B1Minor=0   B2Major=0   B2Minor=0   HSSReduceT="Program Determined"   HSSWelding="Program Determined"   Omega0=0   Ry=0   Pnc=0   Pnt=0   Mn3=0   Mn2=0   Vn2=0   Vn3=0   CheckDefl="Program Determined" _
        DeflType="Program Determined"   DLRat=0   SDLAndLLRat=0   LLRat=0   TotalRat=0   NetRat=0   DLAbs=0   SDLAndLLAbs=0   LLAbs=0   TotalAbs=0   NetAbs=0   SpecCamber=0   DCLimit=0
   Frame=59   DesignSect="Program Determined"   FrameType="Program Determined"   Fy=0   RLLF=0   AreaRatio=0   XLMajor=0   XLMinor=0   XLLTB=0   K1Major=0   K1Minor=0   K2Major=0   K2Minor=0   KLTB=0   CmMajor=0   CmMinor=0   Cb=0 _
        B1Major=0   B1Minor=0   B2Major=0   B2Minor=0   HSSReduceT="Program Determined"   HSSWelding="Program Determined"   Omega0=0   Ry=0   Pnc=0   Pnt=0   Mn3=0   Mn2=0   Vn2=0   Vn3=0   CheckDefl="Program Determined" _
        DeflType="Program Determined"   DLRat=0   SDLAndLLRat=0   LLRat=0   TotalRat=0   NetRat=0   DLAbs=0   SDLAndLLAbs=0   LLAbs=0   TotalAbs=0   NetAbs=0   SpecCamber=0   DCLimit=0
   Frame=60   DesignSect="Program Determined"   FrameType="Program Determined"   Fy=0   RLLF=0   AreaRatio=0   XLMajor=0   XLMinor=0   XLLTB=0   K1Major=0   K1Minor=0   K2Major=0   K2Minor=0   KLTB=0   CmMajor=0   CmMinor=0   Cb=0 _
        B1Major=0   B1Minor=0   B2Major=0   B2Minor=0   HSSReduceT="Program Determined"   HSSWelding="Program Determined"   Omega0=0   Ry=0   Pnc=0   Pnt=0   Mn3=0   Mn2=0   Vn2=0   Vn3=0   CheckDefl="Program Determined" _
        DeflType="Program Determined"   DLRat=0   SDLAndLLRat=0   LLRat=0   TotalRat=0   NetRat=0   DLAbs=0   SDLAndLLAbs=0   LLAbs=0   TotalAbs=0   NetAbs=0   SpecCamber=0   DCLimit=0
   Frame=60   DesignSect="Program Determined"   FrameType="Program Determined"   Fy=0   RLLF=0   AreaRatio=0   XLMajor=0   XLMinor=0   XLLTB=0   K1Major=0   K1Minor=0   K2Major=0   K2Minor=0   KLTB=0   CmMajor=0   CmMinor=0   Cb=0 _
        B1Major=0   B1Minor=0   B2Major=0   B2Minor=0   HSSReduceT="Program Determined"   HSSWelding="Program Determined"   Omega0=0   Ry=0   Pnc=0   Pnt=0   Mn3=0   Mn2=0   Vn2=0   Vn3=0   CheckDefl="Program Determined" _
        DeflType="Program Determined"   DLRat=0   SDLAndLLRat=0   LLRat=0   TotalRat=0   NetRat=0   DLAbs=0   SDLAndLLAbs=0   LLAbs=0   TotalAbs=0   NetAbs=0   SpecCamber=0   DCLimit=0
   Frame=61   DesignSect="Program Determined"   FrameType="Program Determined"   Fy=0   RLLF=0   AreaRatio=0   XLMajor=0   XLMinor=0   XLLTB=0   K1Major=0   K1Minor=0   K2Major=0   K2Minor=0   KLTB=0   CmMajor=0   CmMinor=0   Cb=0 _
        B1Major=0   B1Minor=0   B2Major=0   B2Minor=0   HSSReduceT="Program Determined"   HSSWelding="Program Determined"   Omega0=0   Ry=0   Pnc=0   Pnt=0   Mn3=0   Mn2=0   Vn2=0   Vn3=0   CheckDefl="Program Determined" _
        DeflType="Program Determined"   DLRat=0   SDLAndLLRat=0   LLRat=0   TotalRat=0   NetRat=0   DLAbs=0   SDLAndLLAbs=0   LLAbs=0   TotalAbs=0   NetAbs=0   SpecCamber=0   DCLimit=0
   Frame=61   DesignSect="Program Determined"   FrameType="Program Determined"   Fy=0   RLLF=0   AreaRatio=0   XLMajor=0   XLMinor=0   XLLTB=0   K1Major=0   K1Minor=0   K2Major=0   K2Minor=0   KLTB=0   CmMajor=0   CmMinor=0   Cb=0 _
        B1Major=0   B1Minor=0   B2Major=0   B2Minor=0   HSSReduceT="Program Determined"   HSSWelding="Program Determined"   Omega0=0   Ry=0   Pnc=0   Pnt=0   Mn3=0   Mn2=0   Vn2=0   Vn3=0   CheckDefl="Program Determined" _
        DeflType="Program Determined"   DLRat=0   SDLAndLLRat=0   LLRat=0   TotalRat=0   NetRat=0   DLAbs=0   SDLAndLLAbs=0   LLAbs=0   TotalAbs=0   NetAbs=0   SpecCamber=0   DCLimit=0
   Frame=62   DesignSect="Program Determined"   FrameType="Program Determined"   Fy=0   RLLF=0   AreaRatio=0   XLMajor=0   XLMinor=0   XLLTB=0   K1Major=0   K1Minor=0   K2Major=0   K2Minor=0   KLTB=0   CmMajor=0   CmMinor=0   Cb=0 _
        B1Major=0   B1Minor=0   B2Major=0   B2Minor=0   HSSReduceT="Program Determined"   HSSWelding="Program Determined"   Omega0=0   Ry=0   Pnc=0   Pnt=0   Mn3=0   Mn2=0   Vn2=0   Vn3=0   CheckDefl="Program Determined" _
        DeflType="Program Determined"   DLRat=0   SDLAndLLRat=0   LLRat=0   TotalRat=0   NetRat=0   DLAbs=0   SDLAndLLAbs=0   LLAbs=0   TotalAbs=0   NetAbs=0   SpecCamber=0   DCLimit=0
   Frame=62   DesignSect="Program Determined"   FrameType="Program Determined"   Fy=0   RLLF=0   AreaRatio=0   XLMajor=0   XLMinor=0   XLLTB=0   K1Major=0   K1Minor=0   K2Major=0   K2Minor=0   KLTB=0   CmMajor=0   CmMinor=0   Cb=0 _
        B1Major=0   B1Minor=0   B2Major=0   B2Minor=0   HSSReduceT="Program Determined"   HSSWelding="Program Determined"   Omega0=0   Ry=0   Pnc=0   Pnt=0   Mn3=0   Mn2=0   Vn2=0   Vn3=0   CheckDefl="Program Determined" _
        DeflType="Program Determined"   DLRat=0   SDLAndLLRat=0   LLRat=0   TotalRat=0   NetRat=0   DLAbs=0   SDLAndLLAbs=0   LLAbs=0   TotalAbs=0   NetAbs=0   SpecCamber=0   DCLimit=0
   Frame=63   DesignSect="Program Determined"   FrameType="Program Determined"   Fy=0   RLLF=0   AreaRatio=0   XLMajor=0   XLMinor=0   XLLTB=0   K1Major=0   K1Minor=0   K2Major=0   K2Minor=0   KLTB=0   CmMajor=0   CmMinor=0   Cb=0 _
        B1Major=0   B1Minor=0   B2Major=0   B2Minor=0   HSSReduceT="Program Determined"   HSSWelding="Program Determined"   Omega0=0   Ry=0   Pnc=0   Pnt=0   Mn3=0   Mn2=0   Vn2=0   Vn3=0   CheckDefl="Program Determined" _
        DeflType="Program Determined"   DLRat=0   SDLAndLLRat=0   LLRat=0   TotalRat=0   NetRat=0   DLAbs=0   SDLAndLLAbs=0   LLAbs=0   TotalAbs=0   NetAbs=0   SpecCamber=0   DCLimit=0
   Frame=63   DesignSect="Program Determined"   FrameType="Program Determined"   Fy=0   RLLF=0   AreaRatio=0   XLMajor=0   XLMinor=0   XLLTB=0   K1Major=0   K1Minor=0   K2Major=0   K2Minor=0   KLTB=0   CmMajor=0   CmMinor=0   Cb=0 _
        B1Major=0   B1Minor=0   B2Major=0   B2Minor=0   HSSReduceT="Program Determined"   HSSWelding="Program Determined"   Omega0=0   Ry=0   Pnc=0   Pnt=0   Mn3=0   Mn2=0   Vn2=0   Vn3=0   CheckDefl="Program Determined" _
        DeflType="Program Determined"   DLRat=0   SDLAndLLRat=0   LLRat=0   TotalRat=0   NetRat=0   DLAbs=0   SDLAndLLAbs=0   LLAbs=0   TotalAbs=0   NetAbs=0   SpecCamber=0   DCLimit=0
   Frame=64   DesignSect="Program Determined"   FrameType="Program Determined"   Fy=0   RLLF=0   AreaRatio=0   XLMajor=0   XLMinor=0   XLLTB=0   K1Major=0   K1Minor=0   K2Major=0   K2Minor=0   KLTB=0   CmMajor=0   CmMinor=0   Cb=0 _
        B1Major=0   B1Minor=0   B2Major=0   B2Minor=0   HSSReduceT="Program Determined"   HSSWelding="Program Determined"   Omega0=0   Ry=0   Pnc=0   Pnt=0   Mn3=0   Mn2=0   Vn2=0   Vn3=0   CheckDefl="Program Determined" _
        DeflType="Program Determined"   DLRat=0   SDLAndLLRat=0   LLRat=0   TotalRat=0   NetRat=0   DLAbs=0   SDLAndLLAbs=0   LLAbs=0   TotalAbs=0   NetAbs=0   SpecCamber=0   DCLimit=0
   Frame=64   DesignSect="Program Determined"   FrameType="Program Determined"   Fy=0   RLLF=0   AreaRatio=0   XLMajor=0   XLMinor=0   XLLTB=0   K1Major=0   K1Minor=0   K2Major=0   K2Minor=0   KLTB=0   CmMajor=0   CmMinor=0   Cb=0 _
        B1Major=0   B1Minor=0   B2Major=0   B2Minor=0   HSSReduceT="Program Determined"   HSSWelding="Program Determined"   Omega0=0   Ry=0   Pnc=0   Pnt=0   Mn3=0   Mn2=0   Vn2=0   Vn3=0   CheckDefl="Program Determined" _
        DeflType="Program Determined"   DLRat=0   SDLAndLLRat=0   LLRat=0   TotalRat=0   NetRat=0   DLAbs=0   SDLAndLLAbs=0   LLAbs=0   TotalAbs=0   NetAbs=0   SpecCamber=0   DCLimit=0
   Frame=65   DesignSect="Program Determined"   FrameType="Program Determined"   Fy=0   RLLF=0   AreaRatio=0   XLMajor=0   XLMinor=0   XLLTB=0   K1Major=0   K1Minor=0   K2Major=0   K2Minor=0   KLTB=0   CmMajor=0   CmMinor=0   Cb=0 _
        B1Major=0   B1Minor=0   B2Major=0   B2Minor=0   HSSReduceT="Program Determined"   HSSWelding="Program Determined"   Omega0=0   Ry=0   Pnc=0   Pnt=0   Mn3=0   Mn2=0   Vn2=0   Vn3=0   CheckDefl="Program Determined" _
        DeflType="Program Determined"   DLRat=0   SDLAndLLRat=0   LLRat=0   TotalRat=0   NetRat=0   DLAbs=0   SDLAndLLAbs=0   LLAbs=0   TotalAbs=0   NetAbs=0   SpecCamber=0   DCLimit=0
   Frame=65   DesignSect="Program Determined"   FrameType="Program Determined"   Fy=0   RLLF=0   AreaRatio=0   XLMajor=0   XLMinor=0   XLLTB=0   K1Major=0   K1Minor=0   K2Major=0   K2Minor=0   KLTB=0   CmMajor=0   CmMinor=0   Cb=0 _
        B1Major=0   B1Minor=0   B2Major=0   B2Minor=0   HSSReduceT="Program Determined"   HSSWelding="Program Determined"   Omega0=0   Ry=0   Pnc=0   Pnt=0   Mn3=0   Mn2=0   Vn2=0   Vn3=0   CheckDefl="Program Determined" _
        DeflType="Program Determined"   DLRat=0   SDLAndLLRat=0   LLRat=0   TotalRat=0   NetRat=0   DLAbs=0   SDLAndLLAbs=0   LLAbs=0   TotalAbs=0   NetAbs=0   SpecCamber=0   DCLimit=0
   Frame=66   DesignSect="Program Determined"   FrameType="Program Determined"   Fy=0   RLLF=0   AreaRatio=0   XLMajor=0   XLMinor=0   XLLTB=0   K1Major=0   K1Minor=0   K2Major=0   K2Minor=0   KLTB=0   CmMajor=0   CmMinor=0   Cb=0 _
        B1Major=0   B1Minor=0   B2Major=0   B2Minor=0   HSSReduceT="Program Determined"   HSSWelding="Program Determined"   Omega0=0   Ry=0   Pnc=0   Pnt=0   Mn3=0   Mn2=0   Vn2=0   Vn3=0   CheckDefl="Program Determined" _
        DeflType="Program Determined"   DLRat=0   SDLAndLLRat=0   LLRat=0   TotalRat=0   NetRat=0   DLAbs=0   SDLAndLLAbs=0   LLAbs=0   TotalAbs=0   NetAbs=0   SpecCamber=0   DCLimit=0
   Frame=66   DesignSect="Program Determined"   FrameType="Program Determined"   Fy=0   RLLF=0   AreaRatio=0   XLMajor=0   XLMinor=0   XLLTB=0   K1Major=0   K1Minor=0   K2Major=0   K2Minor=0   KLTB=0   CmMajor=0   CmMinor=0   Cb=0 _
        B1Major=0   B1Minor=0   B2Major=0   B2Minor=0   HSSReduceT="Program Determined"   HSSWelding="Program Determined"   Omega0=0   Ry=0   Pnc=0   Pnt=0   Mn3=0   Mn2=0   Vn2=0   Vn3=0   CheckDefl="Program Determined" _
        DeflType="Program Determined"   DLRat=0   SDLAndLLRat=0   LLRat=0   TotalRat=0   NetRat=0   DLAbs=0   SDLAndLLAbs=0   LLAbs=0   TotalAbs=0   NetAbs=0   SpecCamber=0   DCLimit=0
 
TABLE:  "PREFERENCES - ALUMINUM DESIGN - AA-ASD 2000"
   THDesign=Envelopes   FrameType="Moment Frame"   SRatioLimit=1   MaxIter=1   LatFact=1.33333333333333   UseLatFact=No   Bridge=No
 
TABLE:  "PREFERENCES - COLD FORMED DESIGN - AISI-ASD96"
   THDesign=Envelopes   FrameType="Braced Frame"   SRatioLimit=1   MaxIter=1   OmegaBS=1.67   OmegaBUS=1.67   OmegaBLTB=1.67   OmegaVS=1.67   OmegaVNS=1.5   OmegaT=1.67   OmegaC=1.8
 
TABLE:  "PREFERENCES - CONCRETE DESIGN - ACI 318-14"
   THDesign=Envelopes   NumCurves=24   NumPoints=11   MinEccen=Yes   PatLLF=0.75   UFLimit=0.95   SeisCat=D   Rho=1   Sds=0.5   PhiT=0.9   PhiCTied=0.65   PhiCSpiral=0.75   PhiV=0.75   PhiVSeismic=0.6   PhiVJoint=0.85
 
TABLE:  "PREFERENCES - DIMENSIONAL"
   MergeTol=0.001   FineGrid=0.25   Nudge=0.25   SelectTol=3   SnapTol=12   SLineThick=1   PLineThick=4   MaxFont=8   MinFont=3   AutoZoom=10   ShrinkFact=70   TextFileLen=240
 
TABLE:  "PREFERENCES - STEEL DESIGN - AISC 360-10"
   THDesign=Envelopes   FrameType=SMF   PatLLF=0.75   SRatioLimit=0.95   MaxIter=1   SDC=D   SeisCode=Yes   SeisLoad=Yes   ImpFactor=1   SystemRho=1   SystemSds=0.5   SystemR=8   SystemCd=5.5   Omega0=3   Provision=LRFD _
        AMethod="Direct Analysis"   SOMethod="General 2nd Order"   SRMethod="Tau-b Fixed"   NLCoeff=0.002   PhiB=0.9   PhiC=0.9   PhiTY=0.9   PhiTF=0.75   PhiV=0.9   PhiVRolledI=1   PhiVT=0.9   PlugWeld=Yes   HSSWelding=ERW   HSSReduceT=No _
        CheckDefl=No   DLRat=120   SDLAndLLRat=120   LLRat=360   TotalRat=240   NetRat=240
 
TABLE:  "PROGRAM CONTROL"
   ProgramName=SAP2000   Version=20.2.0   CurrUnits="KN, m, C"   SteelCode="AISC 360-10"   ConcCode="ACI 318-14"   AlumCode="AA-ASD 2000"   ColdCode=AISI-ASD96   RegenHinge=Yes
 
TABLE:  "PROJECT INFORMATION"
   Item="Company Name"   Data="Universidad de Los Andes"
   Item="Client Name"
   Item="Project Name"
   Item="Project Number"
   Item="Model Name"
   Item="Model Description"
   Item="Revision Number"
   Item="Frame Type"
   Item=Engineer
   Item=Checker
   Item=Supervisor
   Item="Issue Code"
   Item="Design Code"
 
TABLE:  "REBAR SIZES"
   RebarID=#2   Area=3.2258E-05   Diameter=0.00635
   RebarID=#3   Area=7.09675996154547E-05   Diameter=0.009525
   RebarID=#4   Area=0.000129032001922727   Diameter=0.0127
   RebarID=#5   Area=0.000199999601538181   Diameter=0.015875
   RebarID=#6   Area=0.000283870398461819   Diameter=0.01905
   RebarID=#7   Area=0.000387096015381813   Diameter=0.022225
   RebarID=#8   Area=0.000509676413843632   Diameter=0.0254
   RebarID=#9   Area=0.00064516   Diameter=0.0286512005329132
   RebarID=#10   Area=0.00081935318769455   Diameter=0.0322579995155334
   RebarID=#11   Area=0.00100644956308365   Diameter=0.0358139991521835
   RebarID=#14   Area=0.00145161   Diameter=0.0430021989583969
   RebarID=#18   Area=0.00258064   Diameter=0.0573277992248535
   RebarID=10M   Area=0.000100000002655387   Diameter=0.011300000667572
   RebarID=15M   Area=0.000200000005310774   Diameter=0.0159999999403954
   RebarID=20M   Area=0.000300000017579794   Diameter=0.0194999997854233
   RebarID=25M   Area=0.000500000022890568   Diameter=0.0252000016093254
   RebarID=30M   Area=0.000700000008974075   Diameter=0.0299000008821487
   RebarID=35M   Area=0.00100000004578114   Diameter=0.0357000011444092
   RebarID=45M   Area=0.00150000010712624   Diameter=0.0437000003576279
   RebarID=55M   Area=0.00250000007599831   Diameter=0.0564000033855438
   RebarID=6d   Area=2.83000004149973E-05   Diameter=0.006000000166893
   RebarID=8d   Area=5.02999995571375E-05   Diameter=0.00799999997019768
   RebarID=10d   Area=7.85000013634562E-05   Diameter=0.00999999977350235
   RebarID=12d   Area=0.000113000009249449   Diameter=0.012000000333786
   RebarID=14d   Area=0.000154000010818839   Diameter=0.0140000008940697
   RebarID=16d   Area=0.000201000015431643   Diameter=0.0159999999403954
   RebarID=20d   Area=0.000314000005453825   Diameter=0.0199999995470047
   RebarID=25d   Area=0.000491000008711815   Diameter=0.0250000001907349
   RebarID=26d   Area=0.000531000029001236   Diameter=0.0259999997138977
   RebarID=28d   Area=0.000616000043275356   Diameter=0.0280000017881393
   RebarID=N12   Area=0.000113000009249449   Diameter=0.012000000333786
   RebarID=N16   Area=0.000201000015431643   Diameter=0.0159999999403954
   RebarID=N20   Area=0.000314000005453825   Diameter=0.0199999995470047
   RebarID=N24   Area=0.000452000036997795   Diameter=0.024000000667572
   RebarID=N28   Area=0.000616000043275356   Diameter=0.0280000017881393
   RebarID=N32   Area=0.00080400006172657   Diameter=0.0319999998807907
   RebarID=N36   Area=0.00102000001747131   Diameter=0.036000001001358
 
END TABLE DATA
